/*--------------------------------*- C++ -*----------------------------------*\
  =========                 |
  \\      /  F ield         | OpenFOAM: The Open Source CFD Toolbox
   \\    /   O peration     | Website:  https://openfoam.org
    \\  /    A nd           | Version:  11
     \\/     M anipulation  |
\*---------------------------------------------------------------------------*/
FoamFile
{
    format          ascii;
    class           dictionary;
    location        "system";
    object          fvSolution;
}
// * * * * * * * * * * * * * * * * * * * * * * * * * * * * * * * * * * * * * //

solvers
{
    p
    {
        solver          GAMG;
        preconditioner  none;
        tolerance       1e-15;
        relTol          0.1;
        smoother        GaussSeidel;
    }
    U
    {
        solver          PBiCGStab;
        preconditioner  DILU;
        tolerance       1e-15;
        relTol          0.1;
    }
}

SIMPLE
{
    nNonOrthogonalCorrectors 0;
    consistent      no;
    residualControl
    {
        p               1e-07;
        U               1e-07;
        "(k|epsilon|omega|f|v2)" 1e-07;
    }
}

relaxationFactors
{
    fields
    {
        p               0.2;
    }
    equations
    {
        U               0.8;
    }
}


// ************************************************************************* //
